LTspice 26.0.1 for Windows
Circuit: C:\Users\Глеб\Desktop\ГАНС\Фильтр\вар2\DesignFiles (1)\SPICE Files\LTspice\ACAnalysis.net
Start Time: Mon Feb 23 22:58:44 2026
solver = Normal
Maximum thread count: 12
tnom = 27
temp = 27
method = trap
Direct Newton iteration succeeded in finding operating point.
Total elapsed time: 0.220 seconds.

Files loaded:
C:\Users\Глеб\Desktop\ГАНС\Фильтр\вар2\DesignFiles (1)\SPICE Files\LTspice\ACAnalysis.net
C:\Users\Глеб\AppData\Local\LTspice\lib\sub\AD8655.sub

