LTspice 26.0.1 for Windows
Circuit: C:\Users\Глеб\Desktop\ГАНС\Hydro_USBL\Filter\V3\DesignFiles (3)\LTspice\ACAnalysis.net
Start Time: Thu Jun 11 01:08:57 2026
solver = Normal
Maximum thread count: 12
tnom = 27
temp = 27
method = trap
Direct Newton iteration succeeded in finding operating point.
Total elapsed time: 0.342 seconds.

Files loaded:
C:\Users\Глеб\Desktop\ГАНС\Hydro_USBL\Filter\V3\DesignFiles (3)\LTspice\ACAnalysis.net
C:\Users\Глеб\AppData\Local\LTspice\lib\cmp\standard.dio
C:\Users\Глеб\AppData\Local\LTspice\lib\sub\AD8655.sub

