LTspice 26.0.1 for Windows
Circuit: C:\Users\Глеб\Desktop\ГАНС\Фильтр\вар3\DesignFiles (3)\LTspice\ACAnalysis.net
Start Time: Thu May 21 13:23:34 2026
solver = Normal
Maximum thread count: 12
tnom = 27
temp = 27
method = trap
WARNING: Node n004 is floating.

Direct Newton iteration succeeded in finding operating point.
Total elapsed time: 0.310 seconds.

Files loaded:
C:\Users\Глеб\Desktop\ГАНС\Фильтр\вар3\DesignFiles (3)\LTspice\ACAnalysis.net
C:\Users\Глеб\AppData\Local\LTspice\lib\sub\AD8655.sub

