LTspice 26.0.1 for Windows
Circuit: C:\Users\Глеб\Desktop\ГАНС\Фильтр\вар3\DesignFiles (3)\LTspice\TransientAnalysis.net
Start Time: Mon May 18 03:05:04 2026
solver = Normal
Maximum thread count: 12
tnom = 27
temp = 27
method = trap
Direct Newton iteration succeeded in finding operating point.
Total elapsed time: 0.291 seconds.

Files loaded:
C:\Users\Глеб\Desktop\ГАНС\Фильтр\вар3\DesignFiles (3)\LTspice\TransientAnalysis.net
C:\Users\Глеб\AppData\Local\LTspice\lib\sub\AD8655.sub

