LTspice 26.0.1 for Windows
Circuit: C:\Users\Глеб\Desktop\ГАНС\Hydro_USBL\Filter\V3\DesignFiles (3)\LTspice\TransientAnalysis.net
Start Time: Thu May 21 13:54:54 2026
solver = Normal
Maximum thread count: 12
tnom = 27
temp = 27
method = trap
WARNING: Node n005 is floating.

Direct Newton iteration succeeded in finding operating point.
Total elapsed time: 0.340 seconds.

Files loaded:
C:\Users\Глеб\Desktop\ГАНС\Hydro_USBL\Filter\V3\DesignFiles (3)\LTspice\TransientAnalysis.net
C:\Users\Глеб\AppData\Local\LTspice\lib\sub\AD8655.sub

