LTspice 26.0.1 for Windows
Circuit: C:\Users\Глеб\Desktop\ГАНС\Hydro_USBL\Filter\Antennae\antennae_33_28_20.net
Start Time: Thu May 28 01:00:53 2026
solver = Normal
Maximum thread count: 12
tnom = 27
temp = 27
method = trap
WARNING: Node n001 is floating.

.OP point found by inspection.
.OP point found by inspection.
Total elapsed time: 0.018 seconds.

Files loaded:
C:\Users\Глеб\Desktop\ГАНС\Hydro_USBL\Filter\Antennae\antennae_33_28_20.net

