LTspice 26.0.1 for Windows
Circuit: C:\Users\Глеб\Desktop\ГАНС\Hydro_USBL\Filter\Antennae\Draft1.net
Start Time: Sun May 24 22:29:40 2026
solver = Normal
Maximum thread count: 12
tnom = 27
temp = 27
method = trap
Direct Newton iteration succeeded in finding operating point.
Total elapsed time: 0.074 seconds.

Files loaded:
C:\Users\Глеб\Desktop\ГАНС\Hydro_USBL\Filter\Antennae\Draft1.net
C:\Users\Глеб\AppData\Local\LTspice\lib\sub\AD8655.sub

