LTspice 26.0.1 for Windows
Circuit: C:\Users\Глеб\Desktop\ГАНС\Hydro_USBL\Filter\Antennae\Power_amp_V1.net
Start Time: Fri May 29 18:09:57 2026
solver = Normal
Maximum thread count: 12
tnom = 27
temp = 27
method = trap
Direct Newton iteration succeeded in finding operating point.
Total elapsed time: 0.028 seconds.

Files loaded:
C:\Users\Глеб\Desktop\ГАНС\Hydro_USBL\Filter\Antennae\Power_amp_V1.net

