LTspice 26.0.1 for Windows
Circuit: C:\Users\Глеб\Desktop\ГАНС\Hydro_USBL\Filter\Antennae\Power_amp_V2.net
Start Time: Sun May 31 10:43:48 2026
solver = Normal
Maximum thread count: 12
tnom = 27
temp = 27
method = trap
Per .tran options, skipping operating point for transient analysis.
Total elapsed time: 0.047 seconds.

Files loaded:
C:\Users\Глеб\Desktop\ГАНС\Hydro_USBL\Filter\Antennae\Power_amp_V2.net

