LTspice 26.0.1 for Windows
Circuit: C:\Users\Глеб\Desktop\ГАНС\Фильтр\модем v1\Draft2.net
Start Time: Thu May 21 12:54:56 2026
solver = Normal
Maximum thread count: 12
tnom = 27
temp = 27
method = trap
WARNING: Node n001 is floating.

.OP point found by inspection.
.OP point found by inspection.
Total elapsed time: 0.024 seconds.

Files loaded:
C:\Users\Глеб\Desktop\ГАНС\Фильтр\модем v1\Draft2.net

