LTspice 26.0.1 for Windows
Circuit: C:\Users\Глеб\Desktop\ГАНС\Фильтр\модем v1\Draft1.net
Start Time: Tue May 19 17:35:08 2026
solver = Normal
Maximum thread count: 12
tnom = 27
temp = 27
method = trap
Direct Newton iteration failed to find operating point.
Starting Gmin stepping
Gmin stepping succeeded in finding the operating point.

Total elapsed time: 0.141 seconds.

Files loaded:
C:\Users\Глеб\Desktop\ГАНС\Фильтр\модем v1\Draft1.net
C:\Users\Глеб\AppData\Local\LTspice\lib\sub\AD8065.sub
C:\Users\Глеб\AppData\Local\LTspice\lib\sub\LTC1562.sub

